/*--------------------------------*- C++ -*----------------------------------*\
| =========                 |                                                 |
| \\      /  F ield         | OpenFOAM: The Open Source CFD Toolbox           |
|  \\    /   O peration     | Version:  2.3.1                                 |
|   \\  /    A nd           | Web:      www.OpenFOAM.org                      |
|    \\/     M anipulation  |                                                 |
\*---------------------------------------------------------------------------*/
FoamFile
{
    version     2.0;
    format      ascii;
    class       volScalarField;
    object      T;
}
// * * * * * * * * * * * * * * * * * * * * * * * * * * * * * * * * * * * * * //

dimensions      [0 0 0 1 0 0 0];

internalField   uniform 0;

boundaryField
{
    inlet
    {
        type            fixedValue;
        value           uniform 1;
    }

    outlet
    {
	 type			 groovyBC;
	 variables		 "f=1/(1+1/(mag(delta())));";
	 valueExpression	 "0";
	 gradientExpression	 "0";
	 fractionExpression	 "f";
	 value			 uniform 0;
    }
    // outlet
    // {
    //     type            fixedValue;
    // 	value           uniform 0; 
    // }

    // upperWall
    // {
    //     type            zeroGradient;
    // }

    // lowerWall
    // {
    //     type            zeroGradient;
    // }

    // frontAndBack
    // {
    //     type            empty;
    // }
}

// ************************************************************************* //
