/*--------------------------------*- C++ -*----------------------------------*\
| =========                 |                                                 |
| \\      /  F ield         | OpenFOAM: The Open Source CFD Toolbox           |
|  \\    /   O peration     | Version:  2.3.1                                 |
|   \\  /    A nd           | Web:      www.OpenFOAM.org                      |
|    \\/     M anipulation  |                                                 |
\*---------------------------------------------------------------------------*/
FoamFile
{
    version     2.0;
    format      ascii;
    class       dictionary;
    location    "constant";
    object      transportProperties;
}
// * * * * * * * * * * * * * * * * * * * * * * * * * * * * * * * * * * * * * //

alpha0			alpha0 [ 0 -1 0 0 0 0 0 ] 0.35;

ionCoeff		ionCoeff [ 1 1 -3 0 0 -1 0 ] 1.65e7;

We0				We0 [ 0 1 -1 0 0 0 0 ] -60.6;

WeExp			WeExp [ 0 0 0 0 0 0 0 ] 0.75;

Wp0				Wp0 [ 0 1 -1 0 0 0 0 ] 0.0243;

De				De [ 0 2 -1 0 0 0 0 ] 0.18;

Dp				Dp [ 0 2 -1 0 0 0 0 ] 4.6e-6;

eCharge			eCharge [ 0 0 1 0 0 1 0 ] 1.6e-19;

eps0			eps0 [ -1 -3 4 0 0 2 0 ] 8.85e-12; 

eMobility		eMobility [ -1 0 2 0 0 1 0 ] 60.6;

pMobility		pMobility [ -1 0 2 0 0 1 0 ] .0243;		


// ************************************************************************* //
